/*--------------------------------*- C++ -*----------------------------------*\
  =========                 |
  \\      /  F ield         | OpenFOAM: The Open Source CFD Toolbox
   \\    /   O peration     | Website:  https://openfoam.org
    \\  /    A nd           | Version:  10
     \\/     M anipulation  |
\*---------------------------------------------------------------------------*/
FoamFile
{
    format      ascii;
    class       dictionary;
    object      blockMeshDict;
}

// * * * * * * * * * * * * * * * * * * * * * * * * * * * * * * * * * * * * * //

convertToMeters .001;

L 1044;
H 288;
W 389;

x_min #calc "-1 * (($L / 2) + (3 * $L))";
x_max #calc "(($L / 2) + (8 * $L))";
z_max #calc "(($W / 2) + (1 * $L))";
z_min #calc "-1 * (($W / 2) + (1 * $L))";
y_max #calc "(($H / 2) + (2 * $L))";
y_min #calc "-1 * (($H / 2) + (50))";

vertices
(
//back
    ($x_min $y_min $z_min) //0
    ($x_max $y_min $z_min) //1
    ($x_max $y_max $z_min) //2
    ($x_min $y_max $z_min) //3
//front
    ($x_min $y_min $z_max) //4
    ($x_max $y_min $z_max) //5
    ($x_max $y_max $z_max) //6
    ($x_min $y_max $z_max) //7
);

blocks
(
    hex (0 1 2 3 4 5 6 7) (20 8 8) simpleGrading (1 1 1)
);

boundary
(
    frontAndBack
    {
        type patch;
        faces
        (
            (3 2 1 0)
            (4 5 6 7)
        );
    }
    inlet
    {
        type patch;
        faces
        (
            (0 4 7 3)
        );
    }
    outlet
    {
        type patch;
        faces
        (
            (2 6 5 1)
        );
    }
    lowerWall
    {
        type wall;
        faces
        (
            (0 1 5 4)
        );
    }
    upperWall
    {
        type patch;
        faces
        (
            (7 6 2 3)
        );
    }
);

// ************************************************************************* //
